Version 4
SHEET 1 1188 680
WIRE 688 -192 688 -208
WIRE 960 -192 960 -208
WIRE 336 -128 336 -144
WIRE 384 -128 336 -128
WIRE 432 -128 432 -144
WIRE 432 -128 384 -128
WIRE 384 -112 384 -128
WIRE 416 -32 336 -32
WIRE 464 -32 416 -32
WIRE 336 -16 336 -32
WIRE 336 48 256 48
WIRE 336 64 336 48
WIRE 256 96 256 48
WIRE 416 96 416 -32
WIRE 144 176 112 176
WIRE 256 176 224 176
WIRE 320 176 256 176
WIRE 544 176 512 176
WIRE 624 176 544 176
WIRE 544 192 544 176
WIRE 320 240 128 240
WIRE 544 288 544 272
WIRE 352 400 352 352
WIRE 384 400 352 400
WIRE 480 400 480 352
WIRE 480 400 448 400
WIRE 352 416 352 400
WIRE 480 416 480 400
FLAG 480 416 0
FLAG 384 -112 0
FLAG 544 288 0
FLAG 464 -32 Vdd
FLAG 352 416 Vss
FLAG 336 64 0
FLAG 960 -112 0
FLAG 624 176 Vout
FLAG 688 -112 0
FLAG 688 -208 Vs
FLAG 112 176 Vs
FLAG 960 -208 Vin
FLAG 128 240 Vin
SYMBOL voltage 336 -240 R0
WINDOW 3 6 92 Left 2
WINDOW 123 0 0 Left 0
WINDOW 39 0 0 Left 0
SYMATTR Value +5
SYMATTR InstName Vdd
SYMBOL Switches\\ADG1611 416 224 R0
SYMATTR InstName U1
SYMBOL voltage 432 -240 R0
WINDOW 3 6 93 Left 2
WINDOW 123 0 0 Left 0
WINDOW 39 0 0 Left 0
SYMATTR Value -5
SYMATTR InstName Vss
SYMBOL cap 320 -16 R0
WINDOW 3 22 50 Left 2
SYMATTR Value 0.1µF
SYMATTR InstName C1
SYMBOL cap 448 384 R90
WINDOW 0 0 32 VBottom 2
WINDOW 3 32 32 VTop 2
SYMATTR InstName C2
SYMATTR Value 0.1µF
SYMBOL voltage 960 -208 R0
WINDOW 0 -67 -81 Left 2
WINDOW 3 -133 -57 Left 2
WINDOW 123 0 0 Left 0
WINDOW 39 0 0 Left 0
SYMATTR InstName Digital_Signal
SYMATTR Value PULSE(0 5 0 0 0 0.05m 1m)
SYMBOL res 528 176 R0
SYMATTR InstName R1
SYMATTR Value 50
SYMBOL res 240 160 R90
WINDOW 0 0 56 VBottom 2
WINDOW 3 32 56 VTop 2
SYMATTR InstName R2
SYMATTR Value 50
SYMBOL res 240 80 R0
SYMATTR InstName R3
SYMATTR Value 50
SYMBOL voltage 688 -208 R0
WINDOW 0 -82 -90 Left 2
WINDOW 3 -116 -58 Left 2
WINDOW 123 0 0 Left 0
WINDOW 39 0 0 Left 0
SYMATTR InstName Analog_Signal
SYMATTR Value SINE(0 5 10k 0 0 0 0)
TEXT 1072 -168 Left 2 !.tran 10m
TEXT 152 488 Left 2 ;Off Isolation = 20 log (Vout/ Vs)
